@<TRIPOS>MOLECULE
*****
 12 11 0 0 0
SMALL
GASTEIGER

@<TRIPOS>ATOM
      1 C           1.0490    0.0882    0.0175 C.3     1  UNL1       -0.0392
      2 C           0.5249    0.7746    1.2693 C.3     1  UNL1        0.0496
      3 O           0.9872    2.1206    1.3008 O.3     1  UNL1       -0.3923
      4 C          -0.9951    0.7884    1.2884 C.3     1  UNL1       -0.0392
      5 H           0.7171    0.6147   -0.8843 H       1  UNL1        0.0254
      6 H           0.7065   -0.9496   -0.0364 H       1  UNL1        0.0254
      7 H           2.1439    0.0962    0.0022 H       1  UNL1        0.0254
      8 H           0.8999    0.2659    2.1639 H       1  UNL1        0.0588
      9 H           1.9601    2.0969    1.3013 H       1  UNL1        0.2098
     10 H          -1.3998   -0.2282    1.2739 H       1  UNL1        0.0254
     11 H          -1.3643    1.2998    2.1835 H       1  UNL1        0.0254
     12 H          -1.3922    1.3359    0.4263 H       1  UNL1        0.0254
@<TRIPOS>BOND
     1     1     2    1
     2     2     3    1
     3     2     4    1
     4     1     5    1
     5     1     6    1
     6     1     7    1
     7     2     8    1
     8     3     9    1
     9     4    10    1
    10     4    11    1
    11     4    12    1
