@<TRIPOS>MOLECULE
*****
   12    11     1     0     0
SMALL
bcc


@<TRIPOS>ATOM
      1 C            1.0490     0.0880     0.0180 c3         1 UNL      -0.111600
      2 C1           0.5250     0.7750     1.2690 c3         1 UNL       0.139100
      3 O            0.9870     2.1210     1.3010 oh         1 UNL      -0.601800
      4 C2          -0.9950     0.7880     1.2880 c3         1 UNL      -0.111600
      5 H            0.7170     0.6150    -0.8840 hc         1 UNL       0.043367
      6 H1           0.7070    -0.9500    -0.0360 hc         1 UNL       0.043367
      7 H2           2.1440     0.0960     0.0020 hc         1 UNL       0.043367
      8 H3           0.9000     0.2660     2.1640 h1         1 UNL       0.028700
      9 H4           1.9600     2.0970     1.3010 ho         1 UNL       0.397000
     10 H5          -1.4000    -0.2280     1.2740 hc         1 UNL       0.043367
     11 H6          -1.3640     1.3000     2.1830 hc         1 UNL       0.043367
     12 H7          -1.3920     1.3360     0.4260 hc         1 UNL       0.043367
@<TRIPOS>BOND
     1     1     2 1   
     2     2     3 1   
     3     2     4 1   
     4     1     5 1   
     5     1     6 1   
     6     1     7 1   
     7     2     8 1   
     8     3     9 1   
     9     4    10 1   
    10     4    11 1   
    11     4    12 1   
@<TRIPOS>SUBSTRUCTURE
     1 UNL         1 TEMP              0 ****  ****    0 ROOT
